data_image0
_cell_length_a       16
_cell_length_b       16
_cell_length_c       16
_cell_angle_alpha    90
_cell_angle_beta     90
_cell_angle_gamma    90

loop_
  _atom_site_label
  _atom_site_occupancy
  _atom_site_fract_x
  _atom_site_fract_y
  _atom_site_fract_z
  _atom_site_thermal_displace_type
  _atom_site_B_iso_or_equiv
  _atom_site_type_symbol
  C1       1.0000 0.69954  0.35455  0.54582  Biso   1.000  C
  C2       1.0000 0.65120  0.35264  0.62179  Biso   1.000  C
  C3       1.0000 0.74586  0.42532  0.52535  Biso   1.000  C
  C4       1.0000 0.65128  0.42103  0.67505  Biso   1.000  C
  C5       1.0000 0.57454  0.44753  0.71378  Biso   1.000  C
  C6       1.0000 0.49940  0.40200  0.70352  Biso   1.000  C
  C7       1.0000 0.42433  0.44763  0.71380  Biso   1.000  C
  C8       1.0000 0.69957  0.41474  0.37946  Biso   1.000  C
  C9       1.0000 0.65115  0.34194  0.40111  Biso   1.000  C
  C10      1.0000 0.74587  0.45604  0.44048  Biso   1.000  C
  C11      1.0000 0.65113  0.31242  0.48262  Biso   1.000  C
  C12      1.0000 0.57435  0.28384  0.51974  Biso   1.000  C
  C13      1.0000 0.49923  0.27956  0.47324  Biso   1.000  C
  C14      1.0000 0.42413  0.28390  0.51976  Biso   1.000  C
  C15      1.0000 0.49932  0.32985  0.64737  Biso   1.000  C
  C16      1.0000 0.57440  0.30868  0.60570  Biso   1.000  C
  C17      1.0000 0.42419  0.30872  0.60574  Biso   1.000  C
  C18      1.0000 0.69980  0.59157  0.38527  Biso   1.000  C
  C19      1.0000 0.65136  0.54853  0.32269  Biso   1.000  C
  C20      1.0000 0.74599  0.54624  0.44346  Biso   1.000  C
  C21      1.0000 0.65122  0.46188  0.31985  Biso   1.000  C
  C22      1.0000 0.57442  0.41782  0.30412  Biso   1.000  C
  C23      1.0000 0.49939  0.46080  0.28561  Biso   1.000  C
  C24      1.0000 0.42427  0.41794  0.30411  Biso   1.000  C
  C25      1.0000 0.49926  0.31068  0.38728  Biso   1.000  C
  C26      1.0000 0.57438  0.34374  0.35431  Biso   1.000  C
  C27      1.0000 0.42420  0.34384  0.35429  Biso   1.000  C
  C28      1.0000 0.69989  0.64067  0.55526  Biso   1.000  C
  C29      1.0000 0.65156  0.68694  0.49493  Biso   1.000  C
  C30      1.0000 0.74604  0.57128  0.53017  Biso   1.000  C
  C31      1.0000 0.65152  0.66291  0.41163  Biso   1.000  C
  C32      1.0000 0.57475  0.66435  0.36474  Biso   1.000  C
  C33      1.0000 0.49966  0.69524  0.39983  Biso   1.000  C
  C34      1.0000 0.42450  0.66446  0.36479  Biso   1.000  C
  C35      1.0000 0.49952  0.55218  0.28854  Biso   1.000  C
  C36      1.0000 0.57467  0.59371  0.30980  Biso   1.000  C
  C37      1.0000 0.42445  0.59383  0.30982  Biso   1.000  C
  C38      1.0000 0.69971  0.49415  0.65447  Biso   1.000  C
  C39      1.0000 0.65143  0.56584  0.67980  Biso   1.000  C
  C40      1.0000 0.74595  0.49655  0.58079  Biso   1.000  C
  C41      1.0000 0.65151  0.63762  0.63118  Biso   1.000  C
  C42      1.0000 0.57479  0.68265  0.61796  Biso   1.000  C
  C43      1.0000 0.49968  0.65885  0.65814  Biso   1.000  C
  C44      1.0000 0.42459  0.68274  0.61799  Biso   1.000  C
  C45      1.0000 0.49973  0.72056  0.48768  Biso   1.000  C
  C46      1.0000 0.57482  0.71311  0.53382  Biso   1.000  C
  C47      1.0000 0.42464  0.71321  0.53386  Biso   1.000  C
  C48      1.0000 0.49960  0.58320  0.70947  Biso   1.000  C
  C49      1.0000 0.57465  0.53698  0.71672  Biso   1.000  C
  C50      1.0000 0.42446  0.53708  0.71673  Biso   1.000  C
  C51      1.0000 0.29941  0.64097  0.55528  Biso   1.000  C
  C52      1.0000 0.34779  0.63784  0.63119  Biso   1.000  C
  C53      1.0000 0.34773  0.56608  0.67983  Biso   1.000  C
  C54      1.0000 0.25309  0.57168  0.53022  Biso   1.000  C
  C55      1.0000 0.29933  0.59188  0.38532  Biso   1.000  C
  C56      1.0000 0.34776  0.66312  0.41169  Biso   1.000  C
  C57      1.0000 0.34783  0.68717  0.49498  Biso   1.000  C
  C58      1.0000 0.25305  0.54665  0.44352  Biso   1.000  C
  C59      1.0000 0.29912  0.41504  0.37949  Biso   1.000  C
  C60      1.0000 0.34756  0.46213  0.31989  Biso   1.000  C
  C61      1.0000 0.34766  0.54878  0.32270  Biso   1.000  C
  C62      1.0000 0.25294  0.45644  0.44054  Biso   1.000  C
  C63      1.0000 0.29906  0.35483  0.54590  Biso   1.000  C
  C64      1.0000 0.34737  0.31262  0.48265  Biso   1.000  C
  C65      1.0000 0.34741  0.34213  0.40112  Biso   1.000  C
  C66      1.0000 0.25290  0.42572  0.52541  Biso   1.000  C
  C67      1.0000 0.29928  0.49449  0.65450  Biso   1.000  C
  C68      1.0000 0.34754  0.42126  0.67507  Biso   1.000  C
  C69      1.0000 0.34746  0.35282  0.62186  Biso   1.000  C
  C70      1.0000 0.25301  0.49695  0.58083  Biso   1.000  C
