data_image0
_cell_length_a       16
_cell_length_b       16
_cell_length_c       16
_cell_angle_alpha    90
_cell_angle_beta     90
_cell_angle_gamma    90

loop_
  _atom_site_label
  _atom_site_occupancy
  _atom_site_fract_x
  _atom_site_fract_y
  _atom_site_fract_z
  _atom_site_thermal_displace_type
  _atom_site_B_iso_or_equiv
  _atom_site_type_symbol
  C1       1.0000 0.57480  0.68467  0.66264  Biso   1.000  C
  C2       1.0000 0.49949  0.65741  0.70055  Biso   1.000  C
  C3       1.0000 0.49985  0.57965  0.74362  Biso   1.000  C
  C4       1.0000 0.42387  0.68411  0.66289  Biso   1.000  C
  C5       1.0000 0.42376  0.73142  0.58772  Biso   1.000  C
  C6       1.0000 0.49888  0.75175  0.54495  Biso   1.000  C
  C7       1.0000 0.57430  0.73196  0.58746  Biso   1.000  C
  C8       1.0000 0.35081  0.63059  0.66315  Biso   1.000  C
  C9       1.0000 0.35358  0.55057  0.70109  Biso   1.000  C
  C10      1.0000 0.42779  0.52689  0.74390  Biso   1.000  C
  C11      1.0000 0.30467  0.48687  0.66367  Biso   1.000  C
  C12      1.0000 0.34923  0.70831  0.45684  Biso   1.000  C
  C13      1.0000 0.34938  0.70856  0.54258  Biso   1.000  C
  C14      1.0000 0.30540  0.64468  0.58815  Biso   1.000  C
  C15      1.0000 0.26315  0.57905  0.54584  Biso   1.000  C
  C16      1.0000 0.25940  0.50136  0.58866  Biso   1.000  C
  C17      1.0000 0.57396  0.73139  0.41106  Biso   1.000  C
  C18      1.0000 0.49871  0.75145  0.45369  Biso   1.000  C
  C19      1.0000 0.42346  0.73087  0.41130  Biso   1.000  C
  C20      1.0000 0.33297  0.40082  0.66387  Biso   1.000  C
  C21      1.0000 0.41009  0.37874  0.70150  Biso   1.000  C
  C22      1.0000 0.45570  0.44204  0.74410  Biso   1.000  C
  C23      1.0000 0.45542  0.31253  0.66391  Biso   1.000  C
  C24      1.0000 0.25777  0.42330  0.45782  Biso   1.000  C
  C25      1.0000 0.25793  0.42354  0.54356  Biso   1.000  C
  C26      1.0000 0.30523  0.36196  0.58898  Biso   1.000  C
  C27      1.0000 0.35442  0.30147  0.54650  Biso   1.000  C
  C28      1.0000 0.42733  0.27392  0.58903  Biso   1.000  C
  C29      1.0000 0.30510  0.64418  0.41177  Biso   1.000  C
  C30      1.0000 0.26298  0.57880  0.45459  Biso   1.000  C
  C31      1.0000 0.25910  0.50086  0.41226  Biso   1.000  C
  C32      1.0000 0.54599  0.31285  0.66375  Biso   1.000  C
  C33      1.0000 0.59094  0.37940  0.70118  Biso   1.000  C
  C34      1.0000 0.54501  0.44237  0.74392  Biso   1.000  C
  C35      1.0000 0.66777  0.40202  0.66329  Biso   1.000  C
  C36      1.0000 0.50054  0.24825  0.45790  Biso   1.000  C
  C37      1.0000 0.50071  0.24846  0.54364  Biso   1.000  C
  C38      1.0000 0.57408  0.27442  0.58876  Biso   1.000  C
  C39      1.0000 0.64664  0.30251  0.54598  Biso   1.000  C
  C40      1.0000 0.69554  0.36336  0.58831  Biso   1.000  C
  C41      1.0000 0.30493  0.36148  0.41258  Biso   1.000  C
  C42      1.0000 0.35425  0.30123  0.45524  Biso   1.000  C
  C43      1.0000 0.42702  0.27348  0.41262  Biso   1.000  C
  C44      1.0000 0.69543  0.48828  0.66297  Biso   1.000  C
  C45      1.0000 0.64618  0.55162  0.70056  Biso   1.000  C
  C46      1.0000 0.57230  0.52741  0.74363  Biso   1.000  C
  C47      1.0000 0.64825  0.63167  0.66265  Biso   1.000  C
  C48      1.0000 0.74205  0.42507  0.45697  Biso   1.000  C
  C49      1.0000 0.74223  0.42529  0.54271  Biso   1.000  C
  C50      1.0000 0.74034  0.50311  0.58781  Biso   1.000  C
  C51      1.0000 0.73586  0.58077  0.54502  Biso   1.000  C
  C52      1.0000 0.69328  0.64609  0.58748  Biso   1.000  C
  C53      1.0000 0.57372  0.27403  0.41238  Biso   1.000  C
  C54      1.0000 0.64644  0.30231  0.45473  Biso   1.000  C
  C55      1.0000 0.69515  0.36293  0.41190  Biso   1.000  C
  C56      1.0000 0.73998  0.50261  0.41141  Biso   1.000  C
  C57      1.0000 0.73570  0.58052  0.45376  Biso   1.000  C
  C58      1.0000 0.69294  0.64557  0.41110  Biso   1.000  C
  C59      1.0000 0.64850  0.70937  0.45632  Biso   1.000  C
  C60      1.0000 0.64868  0.70964  0.54206  Biso   1.000  C
  C61      1.0000 0.69481  0.48737  0.33649  Biso   1.000  C
  C62      1.0000 0.57145  0.52605  0.25592  Biso   1.000  C
  C63      1.0000 0.64548  0.55050  0.29865  Biso   1.000  C
  C64      1.0000 0.64766  0.63073  0.33617  Biso   1.000  C
  C65      1.0000 0.54537  0.31202  0.33729  Biso   1.000  C
  C66      1.0000 0.54414  0.44099  0.25621  Biso   1.000  C
  C67      1.0000 0.59019  0.37832  0.29927  Biso   1.000  C
  C68      1.0000 0.66713  0.40115  0.33680  Biso   1.000  C
  C69      1.0000 0.33239  0.39991  0.33737  Biso   1.000  C
  C70      1.0000 0.45480  0.44065  0.25638  Biso   1.000  C
  C71      1.0000 0.40936  0.37762  0.29957  Biso   1.000  C
  C72      1.0000 0.45482  0.31167  0.33743  Biso   1.000  C
  C73      1.0000 0.35023  0.62965  0.33669  Biso   1.000  C
  C74      1.0000 0.42690  0.52552  0.25619  Biso   1.000  C
  C75      1.0000 0.35286  0.54942  0.29919  Biso   1.000  C
  C76      1.0000 0.30409  0.48594  0.33717  Biso   1.000  C
  C77      1.0000 0.57420  0.68369  0.33615  Biso   1.000  C
  C78      1.0000 0.49898  0.57829  0.25590  Biso   1.000  C
  C79      1.0000 0.49878  0.65625  0.29862  Biso   1.000  C
  C80      1.0000 0.42330  0.68315  0.33640  Biso   1.000  C
