data_image0
_cell_length_a       0
_cell_length_b       0
_cell_length_c       0
_cell_angle_alpha    90
_cell_angle_beta     90
_cell_angle_gamma    90

loop_
  _atom_site_label
  _atom_site_occupancy
  _atom_site_fract_x
  _atom_site_fract_y
  _atom_site_fract_z
  _atom_site_thermal_displace_type
  _atom_site_B_iso_or_equiv
  _atom_site_type_symbol
  C1       1.0000 17.12980  -7.72520  0.93830  Biso   1.000  C
  C2       1.0000 16.92100  -8.05350  -0.33360  Biso   1.000  C
  C3       1.0000 17.58410  -9.07160  -0.87480  Biso   1.000  C
  C4       1.0000 18.00040  -8.41420  1.66790  Biso   1.000  C
  C5       1.0000 17.08510  -6.39920  1.03220  Biso   1.000  C
  C6       1.0000 16.74740  -6.92960  -1.02580  Biso   1.000  C
  C7       1.0000 18.07270  -8.96760  -2.10870  Biso   1.000  C
  C8       1.0000 18.45470  -9.76050  -0.14510  Biso   1.000  C
  C9       1.0000 18.82760  -7.77810  2.49260  Biso   1.000  C
  C10      1.0000 18.66350  -9.43220  1.12680  Biso   1.000  C
  C11      1.0000 17.91240  -5.76310  1.85690  Biso   1.000  C
  C12      1.0000 16.84880  -5.90810  -0.18240  Biso   1.000  C
  C13      1.0000 17.23550  -6.82520  -2.25860  Biso   1.000  C
  C14      1.0000 19.24620  -9.59290  -2.14070  Biso   1.000  C
  C15      1.0000 17.89900  -7.84450  -2.79990  Biso   1.000  C
  C16      1.0000 19.48270  -10.08320  -0.92710  Biso   1.000  C
  C17      1.0000 18.78300  -6.45200  2.58660  Biso   1.000  C
  C18      1.0000 20.00230  -8.40350  2.46080  Biso   1.000  C
  C19      1.0000 19.90100  -9.42490  1.61740  Biso   1.000  C
  C20      1.0000 18.50270  -4.63480  1.46860  Biso   1.000  C
  C21      1.0000 17.43830  -4.78090  -0.57070  Biso   1.000  C
  C22      1.0000 17.82490  -5.69790  -2.64690  Biso   1.000  C
  C23      1.0000 20.24450  -9.09600  -2.86260  Biso   1.000  C
  C24      1.0000 18.89740  -7.34750  -3.52180  Biso   1.000  C
  C25      1.0000 20.71900  -10.07580  -0.43650  Biso   1.000  C
  C26      1.0000 19.91260  -5.75050  2.65040  Biso   1.000  C
  C27      1.0000 21.13120  -7.70300  2.52450  Biso   1.000  C
  C28      1.0000 20.92830  -9.74730  0.83650  Biso   1.000  C
  C29      1.0000 19.73890  -4.62730  1.95930  Biso   1.000  C
  C30      1.0000 18.26620  -4.14460  0.25510  Biso   1.000  C
  C31      1.0000 17.92630  -4.67640  -1.80360  Biso   1.000  C
  C32      1.0000 18.85220  -6.02030  -3.42780  Biso   1.000  C
  C33      1.0000 20.07090  -7.97280  -3.55370  Biso   1.000  C
  C34      1.0000 21.48080  -9.08840  -2.37190  Biso   1.000  C
  C35      1.0000 21.71730  -9.57870  -1.15840  Biso   1.000  C
  C36      1.0000 21.08600  -6.37580  2.61850  Biso   1.000  C
  C37      1.0000 22.15850  -8.02540  1.74370  Biso   1.000  C
  C38      1.0000 22.05720  -9.04680  0.90030  Biso   1.000  C
  C39      1.0000 20.73730  -4.13030  1.23740  Biso   1.000  C
  C40      1.0000 19.26450  -3.64750  -0.46680  Biso   1.000  C
  C41      1.0000 19.05510  -3.97600  -1.73980  Biso   1.000  C
  C42      1.0000 19.98110  -5.31970  -3.36410  Biso   1.000  C
  C43      1.0000 21.20050  -7.27130  -3.48990  Biso   1.000  C
  C44      1.0000 22.07110  -7.96020  -2.76020  Biso   1.000  C
  C45      1.0000 22.54510  -8.94240  -0.33260  Biso   1.000  C
  C46      1.0000 22.08440  -5.87880  1.89660  Biso   1.000  C
  C47      1.0000 22.74800  -6.89810  1.35540  Biso   1.000  C
  C48      1.0000 21.91080  -4.75570  1.20550  Biso   1.000  C
  C49      1.0000 20.50080  -3.64010  0.02380  Biso   1.000  C
  C50      1.0000 20.08240  -4.29830  -2.52060  Biso   1.000  C
  C51      1.0000 21.15590  -5.94520  -3.39590  Biso   1.000  C
  C52      1.0000 22.89840  -7.32400  -1.93550  Biso   1.000  C
  C53      1.0000 23.13470  -7.81520  -0.72090  Biso   1.000  C
  C54      1.0000 23.23610  -6.79370  0.12250  Biso   1.000  C
  C55      1.0000 22.39940  -4.65170  -0.02850  Biso   1.000  C
  C56      1.0000 21.52880  -3.96280  -0.75820  Biso   1.000  C
  C57      1.0000 21.32000  -4.29110  -2.03010  Biso   1.000  C
  C58      1.0000 21.98310  -5.30910  -2.57120  Biso   1.000  C
  C59      1.0000 22.85370  -5.99800  -1.84160  Biso   1.000  C
  C60      1.0000 23.06240  -5.66980  -0.56970  Biso   1.000  C
