data_image0
_cell_length_a       30.763
_cell_length_b       19.825
_cell_length_c       20.036
_cell_angle_alpha    90
_cell_angle_beta     92.25
_cell_angle_gamma    90

_symmetry_space_group_name_H-M    "P 1"
_symmetry_int_tables_number       1

loop_
  _symmetry_equiv_pos_as_xyz
  'x, y, z'

loop_
  _atom_site_label
  _atom_site_occupancy
  _atom_site_fract_x
  _atom_site_fract_y
  _atom_site_fract_z
  _atom_site_thermal_displace_type
  _atom_site_B_iso_or_equiv
  _atom_site_type_symbol
  Zn1      1.0000 0.63400  0.38386  0.74205  Biso   1.000  Zn
  Zn2      1.0000 0.63400  0.61614  0.24205  Biso   1.000  Zn
  Zn3      1.0000 0.86600  0.11614  0.25795  Biso   1.000  Zn
  N1       1.0000 0.68612  0.45050  0.73890  Biso   1.000  N
  N2       1.0000 0.68612  0.54950  0.23890  Biso   1.000  N
  N3       1.0000 0.81388  0.04950  0.26110  Biso   1.000  N
  N4       1.0000 0.60646  0.43070  0.65820  Biso   1.000  N
  N5       1.0000 0.89354  0.06930  0.34180  Biso   1.000  N
  N6       1.0000 0.59205  0.30260  0.72270  Biso   1.000  N
  N7       1.0000 0.90795  0.19740  0.27730  Biso   1.000  N
  N8       1.0000 0.67177  0.32270  0.80380  Biso   1.000  N
  N9       1.0000 0.82823  0.17730  0.19620  Biso   1.000  N
  N10      1.0000 0.59845  0.44210  0.81090  Biso   1.000  N
  N11      1.0000 0.59845  0.55790  0.31090  Biso   1.000  N
  N12      1.0000 0.90155  0.05790  0.18910  Biso   1.000  N
  C1       1.0000 0.72440  0.44780  0.77610  Biso   1.000  C
  C2       1.0000 0.72440  0.55220  0.27610  Biso   1.000  C
  C3       1.0000 0.77560  0.05220  0.22390  Biso   1.000  C
  C4       1.0000 0.75070  0.50600  0.76040  Biso   1.000  C
  C5       1.0000 0.74930  0.00600  0.73960  Biso   1.000  C
  C6       1.0000 0.75070  0.49400  0.26040  Biso   1.000  C
  H1       1.0000 0.77800  0.51610  0.77930  Biso   1.000  H
  H2       1.0000 0.72200  0.01610  0.72070  Biso   1.000  H
  H3       1.0000 0.77800  0.48390  0.27930  Biso   1.000  H
  C7       1.0000 0.72870  0.54300  0.71370  Biso   1.000  C
  C8       1.0000 0.77130  0.04300  0.78630  Biso   1.000  C
  C9       1.0000 0.72870  0.45700  0.21370  Biso   1.000  C
  H4       1.0000 0.76230  0.08300  0.80570  Biso   1.000  H
  H5       1.0000 0.73770  0.41700  0.19430  Biso   1.000  H
  C10      1.0000 0.68780  0.50710  0.70020  Biso   1.000  C
  C11      1.0000 0.81220  0.00710  0.79980  Biso   1.000  C
  C12      1.0000 0.68780  0.49290  0.20020  Biso   1.000  C
  C13      1.0000 0.65530  0.52860  0.65430  Biso   1.000  C
  C14      1.0000 0.61740  0.49380  0.63540  Biso   1.000  C
  C15      1.0000 0.88260  0.00620  0.36460  Biso   1.000  C
  C16      1.0000 0.58440  0.51670  0.58790  Biso   1.000  C
  H6       1.0000 0.58370  0.55810  0.56600  Biso   1.000  H
  C17      1.0000 0.55470  0.46690  0.58090  Biso   1.000  C
  C18      1.0000 0.94530  0.03310  0.41910  Biso   1.000  C
  H7       1.0000 0.52950  0.46770  0.55350  Biso   1.000  H
  H8       1.0000 0.97050  0.03230  0.44650  Biso   1.000  H
  C19      1.0000 0.56890  0.41270  0.62360  Biso   1.000  C
  C20      1.0000 0.93110  0.08730  0.37640  Biso   1.000  C
  C21      1.0000 0.54650  0.35020  0.63020  Biso   1.000  C
  C22      1.0000 0.95350  0.14980  0.36980  Biso   1.000  C
  C23      1.0000 0.55850  0.29930  0.67560  Biso   1.000  C
  C24      1.0000 0.94150  0.20070  0.32440  Biso   1.000  C
  C25      1.0000 0.53980  0.23380  0.67630  Biso   1.000  C
  C26      1.0000 0.96020  0.26620  0.32370  Biso   1.000  C
  H9       1.0000 0.98320  0.28140  0.35120  Biso   1.000  H
  C27      1.0000 0.56150  0.19750  0.72430  Biso   1.000  C
  C28      1.0000 0.93850  0.30250  0.27570  Biso   1.000  C
  H10      1.0000 0.55630  0.15300  0.73610  Biso   1.000  H
  H11      1.0000 0.94370  0.34700  0.26390  Biso   1.000  H
  C29      1.0000 0.59400  0.24130  0.75330  Biso   1.000  C
  C30      1.0000 0.90600  0.25870  0.24670  Biso   1.000  C
  C31      1.0000 0.62610  0.22070  0.80130  Biso   1.000  C
  C32      1.0000 0.87390  0.27930  0.19870  Biso   1.000  C
  C33      1.0000 0.66230  0.25860  0.82290  Biso   1.000  C
  C34      1.0000 0.83770  0.24140  0.17710  Biso   1.000  C
  C35      1.0000 0.71190  0.33800  0.83330  Biso   1.000  C
  C36      1.0000 0.78810  0.16200  0.16670  Biso   1.000  C
  C37      1.0000 0.73620  0.39710  0.82220  Biso   1.000  C
  C38      1.0000 0.73620  0.60290  0.32220  Biso   1.000  C
  C39      1.0000 0.76380  0.10290  0.17780  Biso   1.000  C
  C40      1.0000 0.84090  0.15580  0.84690  Biso   1.000  C
  H12      1.0000 0.84640  0.15550  0.80160  Biso   1.000  H
  H13      1.0000 0.65360  0.34450  0.19840  Biso   1.000  H
  H14      1.0000 0.83840  0.25690  0.85570  Biso   1.000  H
  H15      1.0000 0.67410  0.55800  0.52910  Biso   1.000  H
  C41      1.0000 0.99120  0.16270  0.41720  Biso   1.000  C
  C42      1.0000 0.98460  0.16600  0.48510  Biso   1.000  C
  H16      1.0000 0.54320  0.34130  0.49960  Biso   1.000  H
  H17      1.0000 0.95680  0.15870  0.50040  Biso   1.000  H
  H18      1.0000 0.53730  0.32560  0.84860  Biso   1.000  H
  H19      1.0000 0.96270  0.17440  0.15140  Biso   1.000  H
  C43      1.0000 0.62120  0.15000  0.82830  Biso   1.000  C
  C44      1.0000 0.87880  0.35000  0.17170  Biso   1.000  C
  C45      1.0000 0.64760  0.09840  0.80890  Biso   1.000  C
  C46      1.0000 0.85240  0.40160  0.19110  Biso   1.000  C
  H20      1.0000 0.66980  0.10760  0.78000  Biso   1.000  H
  H21      1.0000 0.83020  0.39240  0.22000  Biso   1.000  H
  C47      1.0000 0.64220  0.03360  0.83090  Biso   1.000  C
  C48      1.0000 0.85780  0.53360  0.66910  Biso   1.000  C
  H22      1.0000 0.83920  0.49980  0.68260  Biso   1.000  H
  H23      1.0000 0.66080  0.00020  0.31740  Biso   1.000  H
  C49      1.0000 0.89090  0.51830  0.62710  Biso   1.000  C
  H24      1.0000 0.89530  0.47410  0.61340  Biso   1.000  H
  H25      1.0000 0.60470  0.02590  0.38660  Biso   1.000  H
  C50      1.0000 0.91740  0.57000  0.60540  Biso   1.000  C
  H26      1.0000 0.93950  0.56080  0.57630  Biso   1.000  H
  C51      1.0000 0.77850  0.40470  0.86250  Biso   1.000  C
  C52      1.0000 0.77850  0.59530  0.36250  Biso   1.000  C
  C53      1.0000 0.72150  0.09530  0.13750  Biso   1.000  C
  C54      1.0000 0.81750  0.40580  0.83130  Biso   1.000  C
  C55      1.0000 0.81750  0.59420  0.33130  Biso   1.000  C
  C56      1.0000 0.68250  0.09420  0.16870  Biso   1.000  C
  H27      1.0000 0.81770  0.40210  0.78500  Biso   1.000  H
  H28      1.0000 0.81770  0.59790  0.28500  Biso   1.000  H
  H29      1.0000 0.68230  0.09790  0.21500  Biso   1.000  H
  C57      1.0000 0.85720  0.41240  0.86850  Biso   1.000  C
  C58      1.0000 0.85720  0.58760  0.36850  Biso   1.000  C
  H30      1.0000 0.88330  0.41330  0.84680  Biso   1.000  H
  H31      1.0000 0.88330  0.58670  0.34680  Biso   1.000  H
  H32      1.0000 0.61670  0.08670  0.15320  Biso   1.000  H
  C59      1.0000 0.85720  0.58270  0.43560  Biso   1.000  C
  H33      1.0000 0.88340  0.57980  0.46020  Biso   1.000  H
  C60      1.0000 0.81850  0.58190  0.46810  Biso   1.000  C
  H34      1.0000 0.81840  0.57610  0.51410  Biso   1.000  H
  C61      1.0000 0.77980  0.58990  0.43090  Biso   1.000  C
  H35      1.0000 0.75380  0.59180  0.45310  Biso   1.000  H
  C62      1.0000 0.61540  0.45800  0.87130  Biso   1.000  C
  C63      1.0000 0.61540  0.54200  0.37130  Biso   1.000  C
  C64      1.0000 0.88460  0.04200  0.12870  Biso   1.000  C
  H36      1.0000 0.64220  0.43980  0.88450  Biso   1.000  H
  H37      1.0000 0.64220  0.56020  0.38450  Biso   1.000  H
  C65      1.0000 0.59520  0.50060  0.41450  Biso   1.000  C
  H38      1.0000 0.89130  0.01090  0.54470  Biso   1.000  H
  H39      1.0000 0.60870  0.48910  0.45530  Biso   1.000  H
  C66      1.0000 0.55450  0.52390  0.89660  Biso   1.000  C
  C67      1.0000 0.94550  0.02390  0.60340  Biso   1.000  C
  C68      1.0000 0.55450  0.47610  0.39660  Biso   1.000  C
  H40      1.0000 0.96040  0.05150  0.57440  Biso   1.000  H
  H41      1.0000 0.53960  0.44850  0.42560  Biso   1.000  H
  C69      1.0000 0.96340  0.00720  0.66400  Biso   1.000  C
  C70      1.0000 0.53660  0.49280  0.33600  Biso   1.000  C
  H42      1.0000 0.99070  0.02380  0.67720  Biso   1.000  H
  C71      1.0000 0.55880  0.46530  0.79360  Biso   1.000  C
  C72      1.0000 0.55880  0.53470  0.29360  Biso   1.000  C
  C73      1.0000 0.94120  0.03470  0.20640  Biso   1.000  C
  H43      1.0000 0.54590  0.45320  0.75250  Biso   1.000  H
  H44      1.0000 0.54590  0.54680  0.25250  Biso   1.000  H
  H45      1.0000 0.95410  0.04680  0.24750  Biso   1.000  H
  C74      1.0000 0.53650  0.05120  0.56080  Biso   1.000  C
  C75      1.0000 0.96350  0.44880  0.43920  Biso   1.000  C
  C76      1.0000 0.52040  0.08800  0.50620  Biso   1.000  C
  C77      1.0000 0.97960  0.41200  0.49380  Biso   1.000  C
  H46      1.0000 0.52860  0.13440  0.50110  Biso   1.000  H
  H47      1.0000 0.97140  0.36560  0.49890  Biso   1.000  H
  C78      1.0000 0.99240  0.55770  0.45910  Biso   1.000  C
  H48      1.0000 0.98130  0.58320  0.42140  Biso   1.000  H
  C79      1.0000 0.98050  0.49060  0.46650  Biso   1.000  C
  H49      1.0000 0.96110  0.46970  0.43390  Biso   1.000  H
  H50      1.0000 0.53890  0.03030  0.56610  Biso   1.000  H
  C80      1.0000 0.99660  0.45370  0.52100  Biso   1.000  C
  H51      1.0000 0.98840  0.40740  0.52620  Biso   1.000  H
  C81      1.0000 0.97540  0.51600  0.43180  Biso   1.000  C
  H52      1.0000 0.96420  0.45860  0.89410  Biso   1.000  H
  H53      1.0000 0.96420  0.54140  0.39410  Biso   1.000  H
  C82      1.0000 0.55930  0.08870  0.59870  Biso   1.000  C
  C83      1.0000 0.94070  0.41130  0.40130  Biso   1.000  C
  H54      1.0000 0.56380  0.13350  0.58230  Biso   1.000  H
  H55      1.0000 0.93620  0.36650  0.41770  Biso   1.000  H
  H56      1.0000 0.54400  0.09080  0.63960  Biso   1.000  H
  H57      1.0000 0.95600  0.40920  0.36040  Biso   1.000  H
  H58      1.0000 0.58690  0.06710  0.60690  Biso   1.000  H
  H59      1.0000 0.91310  0.43290  0.39310  Biso   1.000  H
  C84      1.0000 0.86780  0.33480  0.57860  Biso   1.000  C
  C85      1.0000 0.63220  0.16520  0.42140  Biso   1.000  C
  C86      1.0000 0.87840  0.26290  0.59970  Biso   1.000  C
  C87      1.0000 0.62160  0.23710  0.40030  Biso   1.000  C
  C88      1.0000 0.84870  0.23720  0.65380  Biso   1.000  C
  C89      1.0000 0.65130  0.26280  0.34620  Biso   1.000  C
  C90      1.0000 0.81750  0.28960  0.68210  Biso   1.000  C
  C91      1.0000 0.68250  0.21040  0.31790  Biso   1.000  C
  C92      1.0000 0.83570  0.34290  0.63480  Biso   1.000  C
  C93      1.0000 0.66430  0.15710  0.36520  Biso   1.000  C
  C94      1.0000 0.86320  0.35400  0.51850  Biso   1.000  C
  C95      1.0000 0.63680  0.14600  0.48150  Biso   1.000  C
  C96      1.0000 0.86790  0.30810  0.45650  Biso   1.000  C
  C97      1.0000 0.63210  0.19190  0.54350  Biso   1.000  C
  C98      1.0000 0.87950  0.25340  0.47790  Biso   1.000  C
  C99      1.0000 0.62050  0.24660  0.52210  Biso   1.000  C
  C100     1.0000 0.88360  0.22330  0.55100  Biso   1.000  C
  C101     1.0000 0.61640  0.27670  0.44900  Biso   1.000  C
  C102     1.0000 0.86530  0.15070  0.54460  Biso   1.000  C
  C103     1.0000 0.63470  0.34930  0.45540  Biso   1.000  C
  C104     1.0000 0.84030  0.12850  0.58600  Biso   1.000  C
  C105     1.0000 0.65970  0.37150  0.41400  Biso   1.000  C
  C106     1.0000 0.83620  0.17620  0.64730  Biso   1.000  C
  C107     1.0000 0.66380  0.32380  0.35270  Biso   1.000  C
  C108     1.0000 0.78930  0.15750  0.66760  Biso   1.000  C
  C109     1.0000 0.71070  0.34250  0.33240  Biso   1.000  C
  C110     1.0000 0.76410  0.19800  0.68770  Biso   1.000  C
  C111     1.0000 0.73590  0.30200  0.31230  Biso   1.000  C
  C112     1.0000 0.77840  0.27370  0.69470  Biso   1.000  C
  C113     1.0000 0.72160  0.22630  0.30530  Biso   1.000  C
  C114     1.0000 0.74610  0.32830  0.67430  Biso   1.000  C
  C115     1.0000 0.75390  0.17170  0.32570  Biso   1.000  C
  C116     1.0000 0.76120  0.37650  0.64390  Biso   1.000  C
  C117     1.0000 0.73880  0.12350  0.35610  Biso   1.000  C
  C118     1.0000 0.80750  0.38660  0.61980  Biso   1.000  C
  C119     1.0000 0.69250  0.11340  0.38020  Biso   1.000  C
  C120     1.0000 0.80190  0.42010  0.55030  Biso   1.000  C
  C121     1.0000 0.69810  0.07990  0.44970  Biso   1.000  C
  C122     1.0000 0.82780  0.40740  0.50690  Biso   1.000  C
  C123     1.0000 0.67220  0.09260  0.49310  Biso   1.000  C
  C124     1.0000 0.81540  0.39180  0.43860  Biso   1.000  C
  C125     1.0000 0.68460  0.10820  0.56140  Biso   1.000  C
  C126     1.0000 0.83600  0.33710  0.40870  Biso   1.000  C
  C127     1.0000 0.66400  0.16290  0.59130  Biso   1.000  C
  C128     1.0000 0.86150  0.19710  0.44000  Biso   1.000  C
  C129     1.0000 0.63850  0.30290  0.56000  Biso   1.000  C
  C130     1.0000 0.85150  0.13910  0.47570  Biso   1.000  C
  C131     1.0000 0.64850  0.36090  0.52430  Biso   1.000  C
  C132     1.0000 0.80130  0.08980  0.57370  Biso   1.000  C
  C133     1.0000 0.69870  0.41020  0.42630  Biso   1.000  C
  C134     1.0000 0.77190  0.10770  0.62170  Biso   1.000  C
  C135     1.0000 0.72810  0.39230  0.37830  Biso   1.000  C
  C136     1.0000 0.71870  0.21450  0.67180  Biso   1.000  C
  C137     1.0000 0.78130  0.28550  0.32820  Biso   1.000  C
  C138     1.0000 0.70840  0.28370  0.66220  Biso   1.000  C
  C139     1.0000 0.79160  0.21630  0.33780  Biso   1.000  C
  C140     1.0000 0.73340  0.40530  0.59220  Biso   1.000  C
  C141     1.0000 0.76660  0.09470  0.40780  Biso   1.000  C
  C142     1.0000 0.75660  0.42930  0.53720  Biso   1.000  C
  C143     1.0000 0.74340  0.07070  0.46280  Biso   1.000  C
  C144     1.0000 0.81680  0.29290  0.36360  Biso   1.000  C
  C145     1.0000 0.68320  0.20710  0.63640  Biso   1.000  C
  C146     1.0000 0.83650  0.22410  0.38530  Biso   1.000  C
  C147     1.0000 0.66350  0.27590  0.61470  Biso   1.000  C
  C148     1.0000 0.81410  0.10120  0.45430  Biso   1.000  C
  C149     1.0000 0.68590  0.39880  0.54570  Biso   1.000  C
  C150     1.0000 0.78610  0.07260  0.50860  Biso   1.000  C
  C151     1.0000 0.71390  0.42740  0.49140  Biso   1.000  C
  C152     1.0000 0.72600  0.11340  0.60990  Biso   1.000  C
  C153     1.0000 0.77400  0.38660  0.39010  Biso   1.000  C
  C154     1.0000 0.69460  0.17000  0.63080  Biso   1.000  C
  C155     1.0000 0.80540  0.33000  0.36920  Biso   1.000  C
  C156     1.0000 0.67770  0.31560  0.61550  Biso   1.000  C
  C157     1.0000 0.82230  0.18440  0.38450  Biso   1.000  C
  C158     1.0000 0.69100  0.38010  0.58040  Biso   1.000  C
  C159     1.0000 0.80900  0.11990  0.41960  Biso   1.000  C
  C160     1.0000 0.73870  0.42930  0.47250  Biso   1.000  C
  C161     1.0000 0.76130  0.07070  0.52750  Biso   1.000  C
  C162     1.0000 0.77160  0.40940  0.42160  Biso   1.000  C
  C163     1.0000 0.72840  0.09060  0.57840  Biso   1.000  C
  C164     1.0000 0.75240  0.37500  0.36540  Biso   1.000  C
  C165     1.0000 0.74760  0.12500  0.63460  Biso   1.000  C
  C166     1.0000 0.77720  0.32280  0.33950  Biso   1.000  C
  C167     1.0000 0.72280  0.17720  0.66050  Biso   1.000  C
  C168     1.0000 0.80450  0.17920  0.35930  Biso   1.000  C
  C169     1.0000 0.69550  0.32080  0.64070  Biso   1.000  C
  C170     1.0000 0.79190  0.12030  0.39380  Biso   1.000  C
  C171     1.0000 0.70810  0.37970  0.60620  Biso   1.000  C
  C172     1.0000 0.74070  0.06890  0.50100  Biso   1.000  C
  C173     1.0000 0.75930  0.43110  0.49900  Biso   1.000  C
  C174     1.0000 0.70970  0.08650  0.54920  Biso   1.000  C
  C175     1.0000 0.79030  0.41350  0.45080  Biso   1.000  C
  C176     1.0000 0.65850  0.20150  0.60120  Biso   1.000  C
  C177     1.0000 0.84150  0.29850  0.39880  Biso   1.000  C
  C178     1.0000 0.64840  0.26970  0.58460  Biso   1.000  C
  C179     1.0000 0.85160  0.23030  0.41540  Biso   1.000  C
  C180     1.0000 0.67080  0.38930  0.51510  Biso   1.000  C
  C181     1.0000 0.82920  0.11070  0.48490  Biso   1.000  C
  C182     1.0000 0.69480  0.41080  0.45990  Biso   1.000  C
  C183     1.0000 0.80520  0.08920  0.54010  Biso   1.000  C
  C184     1.0000 0.75550  0.26300  0.31280  Biso   1.000  C
  C185     1.0000 0.74450  0.23700  0.68720  Biso   1.000  C
  C186     1.0000 0.76500  0.20410  0.32410  Biso   1.000  C
  C187     1.0000 0.73500  0.29590  0.67590  Biso   1.000  C
  C188     1.0000 0.72530  0.15670  0.33560  Biso   1.000  C
  C189     1.0000 0.77470  0.34330  0.66440  Biso   1.000  C
  C190     1.0000 0.74610  0.10470  0.38550  Biso   1.000  C
  C191     1.0000 0.75390  0.39530  0.61450  Biso   1.000  C
  C192     1.0000 0.72500  0.08050  0.43330  Biso   1.000  C
  C193     1.0000 0.77500  0.41950  0.56670  Biso   1.000  C
  C194     1.0000 0.67730  0.10620  0.44090  Biso   1.000  C
  C195     1.0000 0.82270  0.39380  0.55910  Biso   1.000  C
  C196     1.0000 0.66920  0.11120  0.51840  Biso   1.000  C
  C197     1.0000 0.83080  0.38880  0.48160  Biso   1.000  C
  C198     1.0000 0.64850  0.15580  0.54530  Biso   1.000  C
  C199     1.0000 0.85150  0.34420  0.45470  Biso   1.000  C
  C200     1.0000 0.62850  0.20780  0.49360  Biso   1.000  C
  C201     1.0000 0.87150  0.29220  0.50640  Biso   1.000  C
  C202     1.0000 0.62790  0.28390  0.52000  Biso   1.000  C
  C203     1.0000 0.87210  0.21610  0.48000  Biso   1.000  C
  C204     1.0000 0.64010  0.33720  0.49390  Biso   1.000  C
  C205     1.0000 0.85990  0.16280  0.50610  Biso   1.000  C
  C206     1.0000 0.64440  0.33050  0.41550  Biso   1.000  C
  C207     1.0000 0.85560  0.16950  0.58450  Biso   1.000  C
  C208     1.0000 0.68380  0.37740  0.39600  Biso   1.000  C
  C209     1.0000 0.81620  0.12260  0.60400  Biso   1.000  C
  C210     1.0000 0.70730  0.35670  0.35170  Biso   1.000  C
  C211     1.0000 0.79270  0.14330  0.64830  Biso   1.000  C
  C212     1.0000 0.70780  0.28450  0.31890  Biso   1.000  C
  C213     1.0000 0.79220  0.21550  0.68110  Biso   1.000  C
  C214     1.0000 0.67410  0.24870  0.33520  Biso   1.000  C
  C215     1.0000 0.82590  0.25130  0.66480  Biso   1.000  C
  C216     1.0000 0.68640  0.17240  0.34590  Biso   1.000  C
  C217     1.0000 0.81360  0.32760  0.65410  Biso   1.000  C
  C218     1.0000 0.65830  0.15060  0.40520  Biso   1.000  C
  C219     1.0000 0.84170  0.34940  0.59480  Biso   1.000  C
  C220     1.0000 0.63030  0.21120  0.42940  Biso   1.000  C
  C221     1.0000 0.86970  0.28880  0.57060  Biso   1.000  C
  C222     1.0000 0.64070  0.27320  0.38590  Biso   1.000  C
  C223     1.0000 0.85930  0.22680  0.61410  Biso   1.000  C
  C224     1.0000 0.97010  0.21610  0.75770  Biso   1.000  C
  C225     1.0000 0.52990  0.28390  0.24230  Biso   1.000  C
  H60      1.0000 0.96330  0.25450  0.78870  Biso   1.000  H
  H61      1.0000 0.53670  0.24550  0.21130  Biso   1.000  H
  H62      1.0000 0.96450  0.15990  0.77390  Biso   1.000  H
  H63      1.0000 0.53550  0.34010  0.22610  Biso   1.000  H
  Cl1      1.0000 0.94940  0.13900  0.78160  Biso   1.000  Cl
  Cl2      1.0000 0.55060  0.36100  0.21840  Biso   1.000  Cl
  Cl3      1.0000 0.95890  0.28260  0.81300  Biso   1.000  Cl
  Cl4      1.0000 0.54110  0.21740  0.18700  Biso   1.000  Cl
