data_image0
_cell_length_a       20
_cell_length_b       20
_cell_length_c       20
_cell_angle_alpha    90
_cell_angle_beta     90
_cell_angle_gamma    90

_symmetry_space_group_name_H-M    "P 1"
_symmetry_int_tables_number       1

loop_
  _symmetry_equiv_pos_as_xyz
  'x, y, z'

loop_
  _atom_site_label
  _atom_site_occupancy
  _atom_site_fract_x
  _atom_site_fract_y
  _atom_site_fract_z
  _atom_site_thermal_displace_type
  _atom_site_B_iso_or_equiv
  _atom_site_type_symbol
  C1       1.0000 0.37149  0.45374  0.56691  Biso   1.000  C
  C2       1.0000 0.36105  0.43732  0.50332  Biso   1.000  C
  C3       1.0000 0.39421  0.38642  0.47626  Biso   1.000  C
  C4       1.0000 0.41502  0.41929  0.60339  Biso   1.000  C
  C5       1.0000 0.36926  0.52004  0.57161  Biso   1.000  C
  C6       1.0000 0.35237  0.49352  0.46871  Biso   1.000  C
  C7       1.0000 0.41863  0.39162  0.41456  Biso   1.000  C
  C8       1.0000 0.43773  0.35197  0.51274  Biso   1.000  C
  C9       1.0000 0.45638  0.45109  0.64463  Biso   1.000  C
  C10      1.0000 0.44817  0.36839  0.57634  Biso   1.000  C
  C11      1.0000 0.41062  0.55184  0.61284  Biso   1.000  C
  C12      1.0000 0.35744  0.54459  0.51088  Biso   1.000  C
  C13      1.0000 0.37678  0.49874  0.40707  Biso   1.000  C
  C14      1.0000 0.47731  0.36035  0.41296  Biso   1.000  C
  C15      1.0000 0.40995  0.44777  0.38000  Biso   1.000  C
  C16      1.0000 0.48913  0.33584  0.47364  Biso   1.000  C
  C17      1.0000 0.45415  0.51740  0.64933  Biso   1.000  C
  C18      1.0000 0.51511  0.41982  0.64304  Biso   1.000  C
  C19      1.0000 0.51005  0.36875  0.60087  Biso   1.000  C
  C20      1.0000 0.44013  0.60826  0.59343  Biso   1.000  C
  C21      1.0000 0.38692  0.60095  0.49146  Biso   1.000  C
  C22      1.0000 0.40625  0.55510  0.38765  Biso   1.000  C
  C23      1.0000 0.52722  0.38520  0.37687  Biso   1.000  C
  C24      1.0000 0.45987  0.47262  0.34391  Biso   1.000  C
  C25      1.0000 0.55095  0.33621  0.49817  Biso   1.000  C
  C26      1.0000 0.51063  0.55247  0.65252  Biso   1.000  C
  C27      1.0000 0.57156  0.45485  0.64622  Biso   1.000  C
  C28      1.0000 0.56141  0.35263  0.56182  Biso   1.000  C
  C29      1.0000 0.50194  0.60863  0.61796  Biso   1.000  C
  C30      1.0000 0.42831  0.63277  0.53275  Biso   1.000  C
  C31      1.0000 0.41132  0.60618  0.42982  Biso   1.000  C
  C32      1.0000 0.45761  0.53898  0.34861  Biso   1.000  C
  C33      1.0000 0.51854  0.44136  0.34231  Biso   1.000  C
  C34      1.0000 0.58904  0.38558  0.40140  Biso   1.000  C
  C35      1.0000 0.60086  0.36106  0.46208  Biso   1.000  C
  C36      1.0000 0.56930  0.52121  0.65092  Biso   1.000  C
  C37      1.0000 0.62292  0.43873  0.60718  Biso   1.000  C
  C38      1.0000 0.61786  0.38766  0.56501  Biso   1.000  C
  C39      1.0000 0.55186  0.63348  0.58187  Biso   1.000  C
  C40      1.0000 0.47822  0.65762  0.49666  Biso   1.000  C
  C41      1.0000 0.46775  0.64120  0.43301  Biso   1.000  C
  C42      1.0000 0.51405  0.57401  0.35179  Biso   1.000  C
  C43      1.0000 0.57502  0.47643  0.34550  Biso   1.000  C
  C44      1.0000 0.61855  0.44199  0.38199  Biso   1.000  C
  C45      1.0000 0.64225  0.39288  0.50337  Biso   1.000  C
  C46      1.0000 0.61922  0.54606  0.61483  Biso   1.000  C
  C47      1.0000 0.65240  0.49509  0.58777  Biso   1.000  C
  C48      1.0000 0.61054  0.60221  0.58027  Biso   1.000  C
  C49      1.0000 0.54004  0.65799  0.52119  Biso   1.000  C
  C50      1.0000 0.51912  0.62508  0.39397  Biso   1.000  C
  C51      1.0000 0.57279  0.54274  0.35020  Biso   1.000  C
  C52      1.0000 0.65992  0.47380  0.42322  Biso   1.000  C
  C53      1.0000 0.67173  0.44924  0.48395  Biso   1.000  C
  C54      1.0000 0.67680  0.50031  0.52612  Biso   1.000  C
  C55      1.0000 0.63497  0.60741  0.51857  Biso   1.000  C
  C56      1.0000 0.59144  0.64186  0.48209  Biso   1.000  C
  C57      1.0000 0.58100  0.62544  0.41849  Biso   1.000  C
  C58      1.0000 0.61415  0.57454  0.39144  Biso   1.000  C
  C59      1.0000 0.65768  0.54010  0.42792  Biso   1.000  C
  C60      1.0000 0.66812  0.55651  0.49151  Biso   1.000  C
