data_image0
_cell_length_a       35
_cell_length_b       35
_cell_length_c       35
_cell_angle_alpha    90
_cell_angle_beta     90
_cell_angle_gamma    90

_symmetry_space_group_name_H-M    "P 1"
_symmetry_int_tables_number       1

loop_
  _symmetry_equiv_pos_as_xyz
  'x, y, z'

loop_
  _atom_site_label
  _atom_site_occupancy
  _atom_site_fract_x
  _atom_site_fract_y
  _atom_site_fract_z
  _atom_site_thermal_displace_type
  _atom_site_B_iso_or_equiv
  _atom_site_type_symbol
  Fe1      1.0000 0.96889  0.98815  0.33714  Biso   1.000  Fe
  Fe2      1.0000 0.96889  0.98815  0.43640  Biso   1.000  Fe
  Fe3      1.0000 0.01852  0.93852  0.33714  Biso   1.000  Fe
  Fe4      1.0000 0.01852  0.98815  0.38677  Biso   1.000  Fe
  Fe5      1.0000 0.06815  0.98815  0.33714  Biso   1.000  Fe
  Fe6      1.0000 0.01852  0.03778  0.33714  Biso   1.000  Fe
  Fe7      1.0000 0.01852  0.93852  0.43640  Biso   1.000  Fe
  Fe8      1.0000 0.06815  0.98815  0.43640  Biso   1.000  Fe
  Fe9      1.0000 0.01852  0.03778  0.43640  Biso   1.000  Fe
  C1       1.0000 0.21228  0.25928  0.48903  Biso   1.000  C
  C2       1.0000 0.20631  0.24990  0.45047  Biso   1.000  C
  C3       1.0000 0.22526  0.22081  0.27215  Biso   1.000  C
  C4       1.0000 0.23716  0.23959  0.50987  Biso   1.000  C
  C5       1.0000 0.21101  0.29716  0.49171  Biso   1.000  C
  C6       1.0000 0.20135  0.28201  0.26784  Biso   1.000  C
  C7       1.0000 0.23922  0.22378  0.23689  Biso   1.000  C
  C8       1.0000 0.25013  0.20112  0.45585  Biso   1.000  C
  C9       1.0000 0.26079  0.25777  0.53344  Biso   1.000  C
  C10      1.0000 0.25610  0.21051  0.49442  Biso   1.000  C
  C11      1.0000 0.23464  0.31534  0.51528  Biso   1.000  C
  C12      1.0000 0.20425  0.31120  0.45479  Biso   1.000  C
  C13      1.0000 0.21530  0.28500  0.23261  Biso   1.000  C
  C14      1.0000 0.27275  0.20591  0.23598  Biso   1.000  C
  C15      1.0000 0.23426  0.25587  0.21714  Biso   1.000  C
  C16      1.0000 0.27950  0.19191  0.27065  Biso   1.000  C
  C17      1.0000 0.25951  0.29566  0.53613  Biso   1.000  C
  C18      1.0000 0.29435  0.23990  0.53253  Biso   1.000  C
  C19      1.0000 0.29146  0.21071  0.50844  Biso   1.000  C
  C20      1.0000 0.25150  0.34758  0.50418  Biso   1.000  C
  C21      1.0000 0.22110  0.34340  0.44369  Biso   1.000  C
  C22      1.0000 0.23214  0.31720  0.22152  Biso   1.000  C
  C23      1.0000 0.30127  0.22012  0.21535  Biso   1.000  C
  C24      1.0000 0.26278  0.27007  0.19652  Biso   1.000  C
  C25      1.0000 0.31483  0.19212  0.44753  Biso   1.000  C
  C26      1.0000 0.29179  0.31570  0.53795  Biso   1.000  C
  C27      1.0000 0.32661  0.25991  0.53435  Biso   1.000  C
  C28      1.0000 0.32080  0.20150  0.48612  Biso   1.000  C
  C29      1.0000 0.28682  0.34779  0.51820  Biso   1.000  C
  C30      1.0000 0.24475  0.36158  0.46951  Biso   1.000  C
  C31      1.0000 0.23504  0.34639  0.24561  Biso   1.000  C
  C32      1.0000 0.26149  0.30799  0.19921  Biso   1.000  C
  C33      1.0000 0.29631  0.25220  0.19561  Biso   1.000  C
  C34      1.0000 0.33659  0.22033  0.22937  Biso   1.000  C
  C35      1.0000 0.34335  0.20632  0.26404  Biso   1.000  C
  C36      1.0000 0.32531  0.29784  0.53703  Biso   1.000  C
  C37      1.0000 0.35595  0.25070  0.51204  Biso   1.000  C
  C38      1.0000 0.35306  0.22152  0.48794  Biso   1.000  C
  C39      1.0000 0.31535  0.36199  0.49758  Biso   1.000  C
  C40      1.0000 0.27327  0.37578  0.44667  Biso   1.000  C
  C41      1.0000 0.26729  0.36640  0.24743  Biso   1.000  C
  C42      1.0000 0.29374  0.32801  0.20102  Biso   1.000  C
  C43      1.0000 0.32858  0.27225  0.19743  Biso   1.000  C
  C44      1.0000 0.35346  0.25257  0.21828  Biso   1.000  C
  C45      1.0000 0.36700  0.22450  0.45050  Biso   1.000  C
  C46      1.0000 0.35384  0.31203  0.51641  Biso   1.000  C
  C47      1.0000 0.37280  0.28291  0.50095  Biso   1.000  C
  C48      1.0000 0.34888  0.34412  0.49666  Biso   1.000  C
  C49      1.0000 0.30860  0.37599  0.46290  Biso   1.000  C
  C50      1.0000 0.29664  0.35719  0.22512  Biso   1.000  C
  C51      1.0000 0.32731  0.31014  0.20011  Biso   1.000  C
  C52      1.0000 0.37710  0.27074  0.24184  Biso   1.000  C
  C53      1.0000 0.38385  0.25671  0.43940  Biso   1.000  C
  C54      1.0000 0.38674  0.28589  0.46572  Biso   1.000  C
  C55      1.0000 0.36284  0.34709  0.45919  Biso   1.000  C
  C56      1.0000 0.33796  0.36678  0.27548  Biso   1.000  C
  C57      1.0000 0.33200  0.35740  0.23914  Biso   1.000  C
  C58      1.0000 0.35094  0.32831  0.22368  Biso   1.000  C
  C59      1.0000 0.37582  0.30863  0.24453  Biso   1.000  C
  C60      1.0000 0.38178  0.31801  0.44372  Biso   1.000  C
