data_image0
_cell_length_a       13.8964
_cell_length_b       13.8964
_cell_length_c       10.4223
_cell_angle_alpha    90
_cell_angle_beta     90
_cell_angle_gamma    90

_symmetry_space_group_name_H-M    "P 1"
_symmetry_int_tables_number       1

loop_
  _symmetry_equiv_pos_as_xyz
  'x, y, z'

loop_
  _atom_site_label
  _atom_site_occupancy
  _atom_site_fract_x
  _atom_site_fract_y
  _atom_site_fract_z
  _atom_site_thermal_displace_type
  _atom_site_B_iso_or_equiv
  _atom_site_type_symbol
  Fe1      1.0000 0.92351  0.45149  0.16667  Biso   1.000  Fe
  Fe2      1.0000 0.92351  0.57649  0.00000  Biso   1.000  Fe
  Fe3      1.0000 0.04851  0.45149  0.00000  Biso   1.000  Fe
  Fe4      1.0000 0.04851  0.57649  0.16667  Biso   1.000  Fe
  Fe5      1.0000 0.17351  0.45149  0.16667  Biso   1.000  Fe
  Fe6      1.0000 0.17351  0.57649  0.00000  Biso   1.000  Fe
  Fe7      1.0000 0.92351  0.45149  0.50000  Biso   1.000  Fe
  Fe8      1.0000 0.92351  0.57649  0.33333  Biso   1.000  Fe
  Fe9      1.0000 0.04851  0.45149  0.33333  Biso   1.000  Fe
  Fe10     1.0000 0.04851  0.57649  0.50000  Biso   1.000  Fe
  Fe11     1.0000 0.17351  0.45149  0.50000  Biso   1.000  Fe
  Fe12     1.0000 0.17351  0.57649  0.33333  Biso   1.000  Fe
  Fe13     1.0000 0.92351  0.45149  0.83333  Biso   1.000  Fe
  Fe14     1.0000 0.92351  0.57649  0.66667  Biso   1.000  Fe
  Fe15     1.0000 0.04851  0.45149  0.66667  Biso   1.000  Fe
  Fe16     1.0000 0.04851  0.57649  0.83333  Biso   1.000  Fe
  Fe17     1.0000 0.17351  0.45149  0.83333  Biso   1.000  Fe
  Fe18     1.0000 0.17351  0.57649  0.66667  Biso   1.000  Fe
  Fe19     1.0000 0.92351  0.70149  0.16667  Biso   1.000  Fe
  Fe20     1.0000 0.92351  0.82649  0.00000  Biso   1.000  Fe
  Fe21     1.0000 0.92351  0.95149  0.16667  Biso   1.000  Fe
  Fe22     1.0000 0.04851  0.70149  0.00000  Biso   1.000  Fe
  Fe23     1.0000 0.04851  0.82649  0.16667  Biso   1.000  Fe
  Fe24     1.0000 0.17351  0.70149  0.16667  Biso   1.000  Fe
  Fe25     1.0000 0.17351  0.82649  0.00000  Biso   1.000  Fe
  Fe26     1.0000 0.04851  0.95149  0.00000  Biso   1.000  Fe
  Fe27     1.0000 0.17351  0.95149  0.16667  Biso   1.000  Fe
  Fe28     1.0000 0.92351  0.70149  0.50000  Biso   1.000  Fe
  Fe29     1.0000 0.92351  0.82649  0.33333  Biso   1.000  Fe
  Fe30     1.0000 0.92351  0.95149  0.50000  Biso   1.000  Fe
  Fe31     1.0000 0.04851  0.70149  0.33333  Biso   1.000  Fe
  Fe32     1.0000 0.04851  0.82649  0.50000  Biso   1.000  Fe
  Fe33     1.0000 0.17351  0.70149  0.50000  Biso   1.000  Fe
  Fe34     1.0000 0.17351  0.82649  0.33333  Biso   1.000  Fe
  Fe35     1.0000 0.04851  0.95149  0.33333  Biso   1.000  Fe
  Fe36     1.0000 0.17351  0.95149  0.50000  Biso   1.000  Fe
  Fe37     1.0000 0.92351  0.70149  0.83333  Biso   1.000  Fe
  Fe38     1.0000 0.92351  0.82649  0.66667  Biso   1.000  Fe
  Fe39     1.0000 0.92351  0.95149  0.83333  Biso   1.000  Fe
  Fe40     1.0000 0.04851  0.70149  0.66667  Biso   1.000  Fe
  Fe41     1.0000 0.04851  0.82649  0.83333  Biso   1.000  Fe
  Fe42     1.0000 0.17351  0.70149  0.83333  Biso   1.000  Fe
  Fe43     1.0000 0.17351  0.82649  0.66667  Biso   1.000  Fe
  Fe44     1.0000 0.04851  0.95149  0.66667  Biso   1.000  Fe
  Fe45     1.0000 0.17351  0.95149  0.83333  Biso   1.000  Fe
  Fe46     1.0000 0.29851  0.45149  0.00000  Biso   1.000  Fe
  Fe47     1.0000 0.29851  0.57649  0.16667  Biso   1.000  Fe
  Fe48     1.0000 0.42351  0.45149  0.16667  Biso   1.000  Fe
  Fe49     1.0000 0.42351  0.57649  0.00000  Biso   1.000  Fe
  Fe50     1.0000 0.29851  0.45149  0.33333  Biso   1.000  Fe
  Fe51     1.0000 0.29851  0.57649  0.50000  Biso   1.000  Fe
  Fe52     1.0000 0.42351  0.45149  0.50000  Biso   1.000  Fe
  Fe53     1.0000 0.42351  0.57649  0.33333  Biso   1.000  Fe
  Fe54     1.0000 0.29851  0.45149  0.66667  Biso   1.000  Fe
  Fe55     1.0000 0.29851  0.57649  0.83333  Biso   1.000  Fe
  Fe56     1.0000 0.42351  0.45149  0.83333  Biso   1.000  Fe
  Fe57     1.0000 0.42351  0.57649  0.66667  Biso   1.000  Fe
  Fe58     1.0000 0.29851  0.70149  0.00000  Biso   1.000  Fe
  Fe59     1.0000 0.29851  0.82649  0.16667  Biso   1.000  Fe
  Fe60     1.0000 0.42351  0.70149  0.16667  Biso   1.000  Fe
  Fe61     1.0000 0.42351  0.82649  0.00000  Biso   1.000  Fe
  Fe62     1.0000 0.29851  0.95149  0.00000  Biso   1.000  Fe
  Fe63     1.0000 0.42351  0.95149  0.16667  Biso   1.000  Fe
  Fe64     1.0000 0.29851  0.70149  0.33333  Biso   1.000  Fe
  Fe65     1.0000 0.29851  0.82649  0.50000  Biso   1.000  Fe
  Fe66     1.0000 0.42351  0.70149  0.50000  Biso   1.000  Fe
  Fe67     1.0000 0.42351  0.82649  0.33333  Biso   1.000  Fe
  Fe68     1.0000 0.29851  0.95149  0.33333  Biso   1.000  Fe
  Fe69     1.0000 0.42351  0.95149  0.50000  Biso   1.000  Fe
  Fe70     1.0000 0.29851  0.70149  0.66667  Biso   1.000  Fe
  Fe71     1.0000 0.29851  0.82649  0.83333  Biso   1.000  Fe
  Fe72     1.0000 0.42351  0.70149  0.83333  Biso   1.000  Fe
  Fe73     1.0000 0.42351  0.82649  0.66667  Biso   1.000  Fe
  Fe74     1.0000 0.29851  0.95149  0.66667  Biso   1.000  Fe
  Fe75     1.0000 0.42351  0.95149  0.83333  Biso   1.000  Fe
