data_image0
_cell_length_a       13.8964
_cell_length_b       13.8964
_cell_length_c       10.4223
_cell_angle_alpha    90
_cell_angle_beta     90
_cell_angle_gamma    90

_symmetry_space_group_name_H-M    "P 1"
_symmetry_int_tables_number       1

loop_
  _symmetry_equiv_pos_as_xyz
  'x, y, z'

loop_
  _atom_site_label
  _atom_site_occupancy
  _atom_site_fract_x
  _atom_site_fract_y
  _atom_site_fract_z
  _atom_site_thermal_displace_type
  _atom_site_B_iso_or_equiv
  _atom_site_type_symbol
  Fe1      1.0000 0.00000  0.00000  0.00000  Biso   1.000  Fe
  Fe2      1.0000 0.00000  0.12500  0.16667  Biso   1.000  Fe
  Fe3      1.0000 0.12500  0.00000  0.16667  Biso   1.000  Fe
  Fe4      1.0000 0.12500  0.12500  0.00000  Biso   1.000  Fe
  Fe5      1.0000 0.00000  0.25000  0.00000  Biso   1.000  Fe
  Fe6      1.0000 0.00000  0.37500  0.16667  Biso   1.000  Fe
  Fe7      1.0000 0.12500  0.25000  0.16667  Biso   1.000  Fe
  Fe8      1.0000 0.12500  0.37500  0.00000  Biso   1.000  Fe
  Fe9      1.0000 0.25000  0.00000  0.00000  Biso   1.000  Fe
  Fe10     1.0000 0.25000  0.12500  0.16667  Biso   1.000  Fe
  Fe11     1.0000 0.37500  0.00000  0.16667  Biso   1.000  Fe
  Fe12     1.0000 0.37500  0.12500  0.00000  Biso   1.000  Fe
  Fe13     1.0000 0.25000  0.25000  0.00000  Biso   1.000  Fe
  Fe14     1.0000 0.25000  0.37500  0.16667  Biso   1.000  Fe
  Fe15     1.0000 0.37500  0.25000  0.16667  Biso   1.000  Fe
  Fe16     1.0000 0.37500  0.37500  0.00000  Biso   1.000  Fe
  Fe17     1.0000 0.00000  0.00000  0.33333  Biso   1.000  Fe
  Fe18     1.0000 0.00000  0.12500  0.50000  Biso   1.000  Fe
  Fe19     1.0000 0.12500  0.00000  0.50000  Biso   1.000  Fe
  Fe20     1.0000 0.12500  0.12500  0.33333  Biso   1.000  Fe
  Fe21     1.0000 0.00000  0.25000  0.33333  Biso   1.000  Fe
  Fe22     1.0000 0.00000  0.37500  0.50000  Biso   1.000  Fe
  Fe23     1.0000 0.12500  0.25000  0.50000  Biso   1.000  Fe
  Fe24     1.0000 0.12500  0.37500  0.33333  Biso   1.000  Fe
  Fe25     1.0000 0.25000  0.00000  0.33333  Biso   1.000  Fe
  Fe26     1.0000 0.25000  0.12500  0.50000  Biso   1.000  Fe
  Fe27     1.0000 0.37500  0.00000  0.50000  Biso   1.000  Fe
  Fe28     1.0000 0.37500  0.12500  0.33333  Biso   1.000  Fe
  Fe29     1.0000 0.25000  0.25000  0.33333  Biso   1.000  Fe
  Fe30     1.0000 0.25000  0.37500  0.50000  Biso   1.000  Fe
  Fe31     1.0000 0.37500  0.25000  0.50000  Biso   1.000  Fe
  Fe32     1.0000 0.37500  0.37500  0.33333  Biso   1.000  Fe
  Fe33     1.0000 0.00000  0.00000  0.66667  Biso   1.000  Fe
  Fe34     1.0000 0.00000  0.12500  0.83333  Biso   1.000  Fe
  Fe35     1.0000 0.12500  0.00000  0.83333  Biso   1.000  Fe
  Fe36     1.0000 0.12500  0.12500  0.66667  Biso   1.000  Fe
  Fe37     1.0000 0.00000  0.25000  0.66667  Biso   1.000  Fe
  Fe38     1.0000 0.00000  0.37500  0.83333  Biso   1.000  Fe
  Fe39     1.0000 0.12500  0.25000  0.83333  Biso   1.000  Fe
  Fe40     1.0000 0.12500  0.37500  0.66667  Biso   1.000  Fe
  Fe41     1.0000 0.25000  0.00000  0.66667  Biso   1.000  Fe
  Fe42     1.0000 0.25000  0.12500  0.83333  Biso   1.000  Fe
  Fe43     1.0000 0.37500  0.00000  0.83333  Biso   1.000  Fe
  Fe44     1.0000 0.37500  0.12500  0.66667  Biso   1.000  Fe
  Fe45     1.0000 0.25000  0.25000  0.66667  Biso   1.000  Fe
  Fe46     1.0000 0.25000  0.37500  0.83333  Biso   1.000  Fe
  Fe47     1.0000 0.37500  0.25000  0.83333  Biso   1.000  Fe
  Fe48     1.0000 0.37500  0.37500  0.66667  Biso   1.000  Fe
  Fe49     1.0000 0.00000  0.50000  0.00000  Biso   1.000  Fe
  Fe50     1.0000 0.00000  0.62500  0.16667  Biso   1.000  Fe
  Fe51     1.0000 0.12500  0.50000  0.16667  Biso   1.000  Fe
  Fe52     1.0000 0.12500  0.62500  0.00000  Biso   1.000  Fe
  Fe53     1.0000 0.00000  0.75000  0.00000  Biso   1.000  Fe
  Fe54     1.0000 0.00000  0.87500  0.16667  Biso   1.000  Fe
  Fe55     1.0000 0.12500  0.75000  0.16667  Biso   1.000  Fe
  Fe56     1.0000 0.12500  0.87500  0.00000  Biso   1.000  Fe
  Fe57     1.0000 0.25000  0.50000  0.00000  Biso   1.000  Fe
  Fe58     1.0000 0.25000  0.62500  0.16667  Biso   1.000  Fe
  Fe59     1.0000 0.37500  0.50000  0.16667  Biso   1.000  Fe
  Fe60     1.0000 0.37500  0.62500  0.00000  Biso   1.000  Fe
  Fe61     1.0000 0.25000  0.75000  0.00000  Biso   1.000  Fe
  Fe62     1.0000 0.25000  0.87500  0.16667  Biso   1.000  Fe
  Fe63     1.0000 0.37500  0.75000  0.16667  Biso   1.000  Fe
  Fe64     1.0000 0.37500  0.87500  0.00000  Biso   1.000  Fe
  Fe65     1.0000 0.00000  0.50000  0.33333  Biso   1.000  Fe
  Fe66     1.0000 0.00000  0.62500  0.50000  Biso   1.000  Fe
  Fe67     1.0000 0.12500  0.50000  0.50000  Biso   1.000  Fe
  Fe68     1.0000 0.12500  0.62500  0.33333  Biso   1.000  Fe
  Fe69     1.0000 0.00000  0.75000  0.33333  Biso   1.000  Fe
  Fe70     1.0000 0.00000  0.87500  0.50000  Biso   1.000  Fe
  Fe71     1.0000 0.12500  0.75000  0.50000  Biso   1.000  Fe
  Fe72     1.0000 0.12500  0.87500  0.33333  Biso   1.000  Fe
  Fe73     1.0000 0.25000  0.50000  0.33333  Biso   1.000  Fe
  Fe74     1.0000 0.25000  0.62500  0.50000  Biso   1.000  Fe
  Fe75     1.0000 0.37500  0.50000  0.50000  Biso   1.000  Fe
  Fe76     1.0000 0.37500  0.62500  0.33333  Biso   1.000  Fe
  Fe77     1.0000 0.25000  0.75000  0.33333  Biso   1.000  Fe
  Fe78     1.0000 0.25000  0.87500  0.50000  Biso   1.000  Fe
  Fe79     1.0000 0.37500  0.75000  0.50000  Biso   1.000  Fe
  Fe80     1.0000 0.37500  0.87500  0.33333  Biso   1.000  Fe
  Fe81     1.0000 0.00000  0.50000  0.66667  Biso   1.000  Fe
  Fe82     1.0000 0.00000  0.62500  0.83333  Biso   1.000  Fe
  Fe83     1.0000 0.12500  0.50000  0.83333  Biso   1.000  Fe
  Fe84     1.0000 0.12500  0.62500  0.66667  Biso   1.000  Fe
  Fe85     1.0000 0.00000  0.75000  0.66667  Biso   1.000  Fe
  Fe86     1.0000 0.00000  0.87500  0.83333  Biso   1.000  Fe
  Fe87     1.0000 0.12500  0.75000  0.83333  Biso   1.000  Fe
  Fe88     1.0000 0.12500  0.87500  0.66667  Biso   1.000  Fe
  Fe89     1.0000 0.25000  0.50000  0.66667  Biso   1.000  Fe
  Fe90     1.0000 0.25000  0.62500  0.83333  Biso   1.000  Fe
  Fe91     1.0000 0.37500  0.50000  0.83333  Biso   1.000  Fe
  Fe92     1.0000 0.37500  0.62500  0.66667  Biso   1.000  Fe
  Fe93     1.0000 0.25000  0.75000  0.66667  Biso   1.000  Fe
  Fe94     1.0000 0.25000  0.87500  0.83333  Biso   1.000  Fe
  Fe95     1.0000 0.37500  0.75000  0.83333  Biso   1.000  Fe
  Fe96     1.0000 0.37500  0.87500  0.66667  Biso   1.000  Fe
  Fe97     1.0000 0.50000  0.00000  0.00000  Biso   1.000  Fe
  Fe98     1.0000 0.50000  0.12500  0.16667  Biso   1.000  Fe
  Fe99     1.0000 0.62500  0.00000  0.16667  Biso   1.000  Fe
  Fe100    1.0000 0.62500  0.12500  0.00000  Biso   1.000  Fe
  Fe101    1.0000 0.50000  0.25000  0.00000  Biso   1.000  Fe
  Fe102    1.0000 0.50000  0.37500  0.16667  Biso   1.000  Fe
  Fe103    1.0000 0.62500  0.25000  0.16667  Biso   1.000  Fe
  Fe104    1.0000 0.62500  0.37500  0.00000  Biso   1.000  Fe
  Fe105    1.0000 0.75000  0.00000  0.00000  Biso   1.000  Fe
  Fe106    1.0000 0.75000  0.12500  0.16667  Biso   1.000  Fe
  Fe107    1.0000 0.87500  0.00000  0.16667  Biso   1.000  Fe
  Fe108    1.0000 0.87500  0.12500  0.00000  Biso   1.000  Fe
  Fe109    1.0000 0.75000  0.25000  0.00000  Biso   1.000  Fe
  Fe110    1.0000 0.75000  0.37500  0.16667  Biso   1.000  Fe
  Fe111    1.0000 0.87500  0.25000  0.16667  Biso   1.000  Fe
  Fe112    1.0000 0.87500  0.37500  0.00000  Biso   1.000  Fe
  Fe113    1.0000 0.50000  0.00000  0.33333  Biso   1.000  Fe
  Fe114    1.0000 0.50000  0.12500  0.50000  Biso   1.000  Fe
  Fe115    1.0000 0.62500  0.00000  0.50000  Biso   1.000  Fe
  Fe116    1.0000 0.62500  0.12500  0.33333  Biso   1.000  Fe
  Fe117    1.0000 0.50000  0.25000  0.33333  Biso   1.000  Fe
  Fe118    1.0000 0.50000  0.37500  0.50000  Biso   1.000  Fe
  Fe119    1.0000 0.62500  0.25000  0.50000  Biso   1.000  Fe
  Fe120    1.0000 0.62500  0.37500  0.33333  Biso   1.000  Fe
  Fe121    1.0000 0.75000  0.00000  0.33333  Biso   1.000  Fe
  Fe122    1.0000 0.75000  0.12500  0.50000  Biso   1.000  Fe
  Fe123    1.0000 0.87500  0.00000  0.50000  Biso   1.000  Fe
  Fe124    1.0000 0.87500  0.12500  0.33333  Biso   1.000  Fe
  Fe125    1.0000 0.75000  0.25000  0.33333  Biso   1.000  Fe
  Fe126    1.0000 0.75000  0.37500  0.50000  Biso   1.000  Fe
  Fe127    1.0000 0.87500  0.25000  0.50000  Biso   1.000  Fe
  Fe128    1.0000 0.87500  0.37500  0.33333  Biso   1.000  Fe
  Fe129    1.0000 0.50000  0.00000  0.66667  Biso   1.000  Fe
  Fe130    1.0000 0.50000  0.12500  0.83333  Biso   1.000  Fe
  Fe131    1.0000 0.62500  0.00000  0.83333  Biso   1.000  Fe
  Fe132    1.0000 0.62500  0.12500  0.66667  Biso   1.000  Fe
  Fe133    1.0000 0.50000  0.25000  0.66667  Biso   1.000  Fe
  Fe134    1.0000 0.50000  0.37500  0.83333  Biso   1.000  Fe
  Fe135    1.0000 0.62500  0.25000  0.83333  Biso   1.000  Fe
  Fe136    1.0000 0.62500  0.37500  0.66667  Biso   1.000  Fe
  Fe137    1.0000 0.75000  0.00000  0.66667  Biso   1.000  Fe
  Fe138    1.0000 0.75000  0.12500  0.83333  Biso   1.000  Fe
  Fe139    1.0000 0.87500  0.00000  0.83333  Biso   1.000  Fe
  Fe140    1.0000 0.87500  0.12500  0.66667  Biso   1.000  Fe
  Fe141    1.0000 0.75000  0.25000  0.66667  Biso   1.000  Fe
  Fe142    1.0000 0.75000  0.37500  0.83333  Biso   1.000  Fe
  Fe143    1.0000 0.87500  0.25000  0.83333  Biso   1.000  Fe
  Fe144    1.0000 0.87500  0.37500  0.66667  Biso   1.000  Fe
  Fe145    1.0000 0.50000  0.50000  0.00000  Biso   1.000  Fe
  Fe146    1.0000 0.50000  0.62500  0.16667  Biso   1.000  Fe
  Fe147    1.0000 0.62500  0.50000  0.16667  Biso   1.000  Fe
  Fe148    1.0000 0.62500  0.62500  0.00000  Biso   1.000  Fe
  Fe149    1.0000 0.50000  0.75000  0.00000  Biso   1.000  Fe
  Fe150    1.0000 0.50000  0.87500  0.16667  Biso   1.000  Fe
  Fe151    1.0000 0.62500  0.75000  0.16667  Biso   1.000  Fe
  Fe152    1.0000 0.62500  0.87500  0.00000  Biso   1.000  Fe
  Fe153    1.0000 0.75000  0.50000  0.00000  Biso   1.000  Fe
  Fe154    1.0000 0.75000  0.62500  0.16667  Biso   1.000  Fe
  Fe155    1.0000 0.87500  0.50000  0.16667  Biso   1.000  Fe
  Fe156    1.0000 0.87500  0.62500  0.00000  Biso   1.000  Fe
  Fe157    1.0000 0.75000  0.75000  0.00000  Biso   1.000  Fe
  Fe158    1.0000 0.75000  0.87500  0.16667  Biso   1.000  Fe
  Fe159    1.0000 0.87500  0.75000  0.16667  Biso   1.000  Fe
  Fe160    1.0000 0.87500  0.87500  0.00000  Biso   1.000  Fe
  Fe161    1.0000 0.50000  0.50000  0.33333  Biso   1.000  Fe
  Fe162    1.0000 0.50000  0.62500  0.50000  Biso   1.000  Fe
  Fe163    1.0000 0.62500  0.50000  0.50000  Biso   1.000  Fe
  Fe164    1.0000 0.62500  0.62500  0.33333  Biso   1.000  Fe
  Fe165    1.0000 0.50000  0.75000  0.33333  Biso   1.000  Fe
  Fe166    1.0000 0.50000  0.87500  0.50000  Biso   1.000  Fe
  Fe167    1.0000 0.62500  0.75000  0.50000  Biso   1.000  Fe
  Fe168    1.0000 0.62500  0.87500  0.33333  Biso   1.000  Fe
  Fe169    1.0000 0.75000  0.50000  0.33333  Biso   1.000  Fe
  Fe170    1.0000 0.75000  0.62500  0.50000  Biso   1.000  Fe
  Fe171    1.0000 0.87500  0.50000  0.50000  Biso   1.000  Fe
  Fe172    1.0000 0.87500  0.62500  0.33333  Biso   1.000  Fe
  Fe173    1.0000 0.75000  0.75000  0.33333  Biso   1.000  Fe
  Fe174    1.0000 0.75000  0.87500  0.50000  Biso   1.000  Fe
  Fe175    1.0000 0.87500  0.75000  0.50000  Biso   1.000  Fe
  Fe176    1.0000 0.87500  0.87500  0.33333  Biso   1.000  Fe
  Fe177    1.0000 0.50000  0.50000  0.66667  Biso   1.000  Fe
  Fe178    1.0000 0.50000  0.62500  0.83333  Biso   1.000  Fe
  Fe179    1.0000 0.62500  0.50000  0.83333  Biso   1.000  Fe
  Fe180    1.0000 0.62500  0.62500  0.66667  Biso   1.000  Fe
  Fe181    1.0000 0.50000  0.75000  0.66667  Biso   1.000  Fe
  Fe182    1.0000 0.50000  0.87500  0.83333  Biso   1.000  Fe
  Fe183    1.0000 0.62500  0.75000  0.83333  Biso   1.000  Fe
  Fe184    1.0000 0.62500  0.87500  0.66667  Biso   1.000  Fe
  Fe185    1.0000 0.75000  0.50000  0.66667  Biso   1.000  Fe
  Fe186    1.0000 0.75000  0.62500  0.83333  Biso   1.000  Fe
  Fe187    1.0000 0.87500  0.50000  0.83333  Biso   1.000  Fe
  Fe188    1.0000 0.87500  0.62500  0.66667  Biso   1.000  Fe
  Fe189    1.0000 0.75000  0.75000  0.66667  Biso   1.000  Fe
  Fe190    1.0000 0.75000  0.87500  0.83333  Biso   1.000  Fe
  Fe191    1.0000 0.87500  0.75000  0.83333  Biso   1.000  Fe
  Fe192    1.0000 0.87500  0.87500  0.66667  Biso   1.000  Fe
  C1       1.0000 0.53466  0.65303  0.08788  Biso   1.000  C
  C2       1.0000 0.51963  0.62940  0.96585  Biso   1.000  C
  C3       1.0000 0.56736  0.55614  0.91392  Biso   1.000  C
  C4       1.0000 0.59731  0.60345  0.15788  Biso   1.000  C
  C5       1.0000 0.53145  0.74845  0.09690  Biso   1.000  C
  C6       1.0000 0.50714  0.71028  0.89944  Biso   1.000  C
  C7       1.0000 0.60250  0.56363  0.79552  Biso   1.000  C
  C8       1.0000 0.62999  0.50656  0.98393  Biso   1.000  C
  C9       1.0000 0.65683  0.64922  0.23702  Biso   1.000  C
  C10      1.0000 0.64502  0.53019  0.10597  Biso   1.000  C
  C11      1.0000 0.59097  0.79422  0.17602  Biso   1.000  C
  C12      1.0000 0.51444  0.78379  0.98036  Biso   1.000  C
  C13      1.0000 0.54227  0.71780  0.78115  Biso   1.000  C
  C14      1.0000 0.68695  0.51862  0.79245  Biso   1.000  C
  C15      1.0000 0.59001  0.64444  0.72921  Biso   1.000  C
  C16      1.0000 0.70397  0.48335  0.90890  Biso   1.000  C
  C17      1.0000 0.65362  0.74465  0.24604  Biso   1.000  C
  C18      1.0000 0.74136  0.60421  0.23397  Biso   1.000  C
  C19      1.0000 0.73408  0.53071  0.15305  Biso   1.000  C
  C20      1.0000 0.63344  0.87542  0.13877  Biso   1.000  C
  C21      1.0000 0.55686  0.86490  0.94309  Biso   1.000  C
  C22      1.0000 0.58468  0.79891  0.74389  Biso   1.000  C
  C23      1.0000 0.75879  0.55439  0.72320  Biso   1.000  C
  C24      1.0000 0.66185  0.68020  0.65995  Biso   1.000  C
  C25      1.0000 0.79294  0.48388  0.95597  Biso   1.000  C
  C26      1.0000 0.73491  0.79513  0.25216  Biso   1.000  C
  C27      1.0000 0.82260  0.65463  0.24007  Biso   1.000  C
  C28      1.0000 0.80799  0.50751  0.07811  Biso   1.000  C
  C29      1.0000 0.72240  0.87595  0.18584  Biso   1.000  C
  C30      1.0000 0.61643  0.91070  0.02233  Biso   1.000  C
  C31      1.0000 0.59198  0.87243  0.82481  Biso   1.000  C
  C32      1.0000 0.65860  0.77571  0.66897  Biso   1.000  C
  C33      1.0000 0.74629  0.63521  0.65688  Biso   1.000  C
  C34      1.0000 0.84776  0.55494  0.77027  Biso   1.000  C
  C35      1.0000 0.86477  0.51965  0.88671  Biso   1.000  C
  C36      1.0000 0.81935  0.75014  0.24909  Biso   1.000  C
  C37      1.0000 0.89652  0.63143  0.16516  Biso   1.000  C
  C38      1.0000 0.88924  0.55793  0.08423  Biso   1.000  C
  C39      1.0000 0.79425  0.91172  0.11659  Biso   1.000  C
  C40      1.0000 0.68826  0.94646  0.95307  Biso   1.000  C
  C41      1.0000 0.67320  0.92283  0.83093  Biso   1.000  C
  C42      1.0000 0.73983  0.82613  0.67507  Biso   1.000  C
  C43      1.0000 0.82758  0.68569  0.66300  Biso   1.000  C
  C44      1.0000 0.89023  0.63612  0.73302  Biso   1.000  C
  C45      1.0000 0.92434  0.56544  0.96595  Biso   1.000  C
  C46      1.0000 0.89119  0.78590  0.17984  Biso   1.000  C
  C47      1.0000 0.93895  0.71254  0.12791  Biso   1.000  C
  C48      1.0000 0.87870  0.86671  0.11352  Biso   1.000  C
  C49      1.0000 0.77724  0.94699  0.00014  Biso   1.000  C
  C50      1.0000 0.74713  0.89963  0.75601  Biso   1.000  C
  C51      1.0000 0.82437  0.78112  0.67202  Biso   1.000  C
  C52      1.0000 0.94977  0.68190  0.81214  Biso   1.000  C
  C53      1.0000 0.96677  0.64656  0.92868  Biso   1.000  C
  C54      1.0000 0.97407  0.72006  0.00960  Biso   1.000  C
  C55      1.0000 0.91386  0.87420  0.99512  Biso   1.000  C
  C56      1.0000 0.85121  0.92378  0.92511  Biso   1.000  C
  C57      1.0000 0.83619  0.90015  0.80307  Biso   1.000  C
  C58      1.0000 0.88390  0.82689  0.75116  Biso   1.000  C
  C59      1.0000 0.94655  0.77732  0.82116  Biso   1.000  C
  C60      1.0000 0.96157  0.80094  0.94319  Biso   1.000  C
